[TITLE]


[JUNCTIONS]
;ID              	Elev        	Demand      	Pattern         
 BF01N           	1888.8      	0           	unoa            	;
 BF02N           	1875.5      	0           	unoa            	;
 BF03N           	1884.2      	0           	unoa            	;
 BF04N           	1928.7      	0           	unoa            	;
 BF05N           	1948.1      	0           	unoa            	;
 BF06N           	1976.5      	0           	unoa            	;
 BF07N           	2002.9      	0           	unoa            	;
 BF08N           	2026.2      	0           	unoa            	;
 BF09N           	2047.1      	0           	unoa            	;
 BF10N           	2077.4      	0           	unoa            	;
 BF11N           	2098.5      	.17         	unoa            	;
 BF12N           	2100.7      	0           	unoa            	;
 BF13N           	2095.4      	0           	unoa            	;
 BF14            	2126.5      	0           	unoa            	;abbassata di 2m
 BF17            	2174.2      	0           	unoa            	;
 BF40N           	2092.5      	0           	unoa            	; 
 BF41N           	2060.5      	0           	unoa            	;
 BF18N           	2080.8      	0           	unoa            	;
 BF19N           	2089.1      	0           	unoa            	;
 BF20N           	2084.4      	0           	unoa            	;
 BF16N           	2099.6      	0           	unoa            	;
 BF15N           	2101.6      	0           	unoa            	;
 BF38N           	2037.9      	0           	unoa            	;
 BF37N           	1998.6      	0           	unoa            	;
 BF39N           	2067.7      	0           	unoa            	;
 BF34            	2078.4      	0           	unoa            	;
 BF36N           	2037.5      	0           	unoa            	;
 BF35N           	2069.3      	0           	unoa            	;
 BF33            	2080.4      	0           	unoa            	;
 BF32N           	2075.9      	0           	unoa            	;
 BF31N           	2051.1      	0           	unoa            	;
 BF30N           	2033.6      	0           	unoa            	;
 BF29N           	2078.7      	0           	unoa            	;
 BF28N           	2109.3      	0           	unoa            	;
 BF26N           	2125.1      	0           	unoa            	;
 BF27N           	2139.1      	0           	unoa            	;
 BF25N           	2135.5      	0           	unoa            	;
 BF24N           	2140.9      	0           	unoa            	;
 BF23            	2138.1      	0           	unoa            	;abbassata di 2m;
 BF22N           	2156.8      	0           	unoa            	;
 BF21            	2173.7      	0           	unoa            	;
 SOR1            	1928.11     	0           	unoa            	;
 SOR2            	1928.11     	0           	unoa            	;
 PZ05A           	2177        	0           	                	;
 PZ13A           	2161.9      	0           	                	;
 T04             	2090        	0           	                	;
 PZ03A           	2052.7      	0           	                	;
 PZ02A           	1931.7      	0           	                	;
 PZ01A           	2095.5      	0           	                	;
 PZ06A           	2143        	0           	                	;
 PZ07A           	2132        	0           	                	;
 PZ09A           	2083.1      	0           	                	;
 PZ08A           	2067.7      	0           	                	;
 N1              	2000        	0           	                	;
 PZ13B           	2161.9      	0           	                	;
 PZ09B           	2083.1      	0           	                	;
 PZ08B           	2067.7      	0           	                	;
 PZ07B           	2132.1      	0           	                	;
 PZ05B           	2177.0      	0           	                	;
 PZ06B           	2142.8      	0           	                	;
 PZ01B           	2095.5      	0           	                	;
 PZ04A           	2111.8      	0           	                	;
 PZ03B           	2052.7      	0           	                	;
 PZ02B           	1931.7      	0           	                	;
 P01             	1745.48     	0           	                	;
 P02             	1745.48     	0           	                	;
 PZ11A           	2127.95     	0           	                	;
 PZ11B           	2127.95     	0           	                	;
 PZ04B           	2111.8      	0           	                	;
 BF28            	2109.3      	0           	                	;
 BF29            	2078.7      	0           	                	;
 BF26            	2125.1      	0           	                	;
 BF30            	2033.6      	0           	                	;
 BF31            	2051.1      	0           	                	;
 BF32            	2075.9      	0           	                	;
 BF37            	1998.6      	0           	                	;
 BF38            	2037.9      	0           	                	;
 BF39            	2067.7      	0           	                	;
 BF36            	2037.5      	0           	                	;
 BF35            	2069.3      	0           	                	;
 BF27            	2139.1      	0           	                	;
 BF25            	2135.5      	0           	                	;
 BF24            	2140.9      	0           	                	;
 BF22            	2156.8      	0           	                	;
 BF15            	2101.6      	0           	                	;
 BF16            	2099.6      	0           	                	;
 BF20            	2084.4      	0           	                	;
 BF19            	2089.1      	0           	                	;
 BF18            	2080.8      	0           	                	;
 BF41            	2060.5      	0           	                	;
 BF13            	2095.4      	0           	                	;
 BF11            	2098.5      	0           	                	;
 BF40            	2092.5      	0           	                	;
 BF12            	2100.7      	0           	                	;
 BF10            	2077.4      	0           	                	;
 BF06            	1976.5      	0           	                	;
 BF09            	2047.1      	0           	                	;
 BF08            	2026.2      	0           	                	;
 BF07            	2002.9      	0           	                	;
 BF05            	1948.1      	0           	                	;
 BF04            	1928.7      	0           	                	;
 BF03            	1884.2      	0           	                	;
 BF02            	1875.5      	0           	                	;
 BF01            	1888.8      	0           	                	;
 S09out          	2083.1      	0           	                	;
 S11out          	2128        	0           	                	;
 S04out          	2111.8      	0           	                	;
 S02out          	1931.7      	0           	                	;
 S03out          	2052.7      	0           	                	;

[RESERVOIRS]
;ID              	Head        	Pattern         
 SORGENTE        	1928.11     	                	;

[TANKS]
;ID              	Elevation   	InitLevel   	MinLevel    	MaxLevel    	Diameter    	MinVol      	VolCurve
 S00             	2178.8      	1.8         	0           	3.45        	8           	0           	                	;
 S04             	2111.8      	.6          	0           	1.27        	6           	0           	                	;orig 2.41(D)x1.27(h)
 S03             	2052.7      	.6          	0           	1.27        	8           	0           	                	;orig 2.43(D)x1.24(h)
 S02             	1931.7      	.8          	0           	1.2         	4           	0           	                	;orig 2.42(D)x1.20(h)
 S13             	2161.9      	1           	0           	1.56        	6           	0           	                	;orig 3.62(D)x1.56(h)
 S01             	2095.5      	.6          	0           	1.3         	2.18        	0           	                	;orig 2.18(D)x1.30(h)
 S08             	2067.7      	.6          	0           	1.67        	2.38        	0           	                	;orig 2.38(D)x1.67(h)
 S09             	2083.1      	1.1         	0           	1.88        	5           	0           	                	;orig 3.30(D)x1.88(h)
 S07             	2132.1      	1.5         	0           	1.75        	6           	0           	                	;orig 2.27(D)x1.75(h)
 S06             	2142.8      	.9          	0           	1.23        	2.04        	0           	                	;orig 2.04(D)x1.23(h)
 S05             	2177.0      	1.1         	0           	1.75        	2.3         	0           	                	;orig 2.30(D)x1.75(h)
 S11             	2128.0      	1           	0           	1.8         	2.34        	0           	                	;orig 2.34(D)x1.80(h)

[PIPES]
;ID              	Node1           	Node2           	Length      	Diameter    	Roughness   	MinorLoss   	Status
 P20M            	S00             	BF17            	62.6        	26.8        	0.1         	0           	Open  	;
 P17M            	S11out          	BF13N           	360.5       	34.2        	0.1         	0           	Open  	;
 P15M            	S04out          	BF40N           	776.4       	26.8        	0.1         	0           	Open  	; 
 P14M            	S04out          	BF12N           	271.5       	43.2        	0.1         	0           	Open  	;
 P13M            	BF13N           	BF11N           	631.9       	26.8        	0.1         	0           	Open  	;
 P12M            	BF12N           	BF10N           	688.4       	43.2        	0.1         	0           	Open  	;
 P10M            	S03out          	BF06N           	718.1       	26.8        	0.1         	0           	Open  	;
 P09M            	S03out          	BF09N           	34.9        	26.8        	0.1         	0           	Open  	;
 P08M            	S03out          	BF08N           	571.8       	43.2        	0.1         	0           	Open  	;
 P07M            	BF08N           	BF07N           	285.7       	34.2        	0.1         	0           	Open  	;
 P06M            	BF07N           	BF05N           	883.9       	26.8        	0.1         	0           	Open  	;
 P04M            	S02out          	BF04N           	42          	26.8        	0.1         	0           	Open  	;
 P03M            	S02out          	BF03N           	781.4       	43.2        	0.1         	0           	Open  	;
 P02M            	BF03N           	BF02N           	100.1       	34.2        	0.1         	0           	Open  	;
 P01M            	BF02N           	BF01N           	824.8       	26.8        	0.1         	0           	Open  	;
 P07K            	S13             	BF15N           	321.5       	43.2        	0.1         	0           	Open  	;
 P06K            	BF15N           	BF16N           	328.5       	43.2        	0.1         	0           	Open  	;
 P05K            	BF16N           	BF20N           	714.3       	43.2        	0.1         	0           	Open  	;
 P04K            	BF20N           	BF19N           	468.2       	34.2        	0.1         	0           	Open  	;
 P02K            	S01             	BF18N           	759.5       	43.2        	0.1         	0           	Open  	;
 P01k            	BF18N           	BF41N           	518.3       	26.8        	0.1         	0           	Open  	;
 P23C            	S00             	PZ05A           	549.4       	99.6        	0.1         	0           	Open  	;
 PBF21           	S05             	BF21            	45.5        	34.2        	0.1         	0           	Open  	;
 P22C            	PZ05A           	BF22N           	436.8       	79.4        	0.1         	0           	Open  	;
 P21C            	BF22N           	PZ06A           	693.6       	65.8        	0.1         	0           	Open  	;
 PBF23           	S06             	BF23            	59.1        	43.2        	0.1         	0           	Open  	;
 P20C            	PZ06A           	BF24N           	88.1        	65.8        	0.1         	0           	Open  	;
 P19C            	BF24N           	BF25N           	403.7       	65.8        	0.1         	0           	Open  	;
 P18C            	BF25N           	BF27N           	206.7       	55          	0.1         	0           	Open  	;
 P17C            	BF27N           	PZ07A           	401         	55          	0.1         	0           	Open  	;
 P16C            	PZ07A           	BF26N           	60.1        	43.2        	0.1         	0           	Open  	;
 P15C            	BF26N           	BF28N           	350.5       	34.2        	0.1         	0           	Open  	;
 P14C            	BF28N           	BF29N           	456.4       	26.8        	0.1         	0           	Open  	;
 P13C            	S07             	BF30N           	889.7       	55          	0.1         	0           	Open  	;
 P12C            	BF30N           	BF31N           	516         	43.2        	0.1         	0           	Open  	;
 P11C            	BF31N           	BF32N           	163.3       	43.2        	0.1         	0           	Open  	;
 P10C            	BF32N           	PZ09A           	149.1       	34.2        	0.1         	0           	Open  	;
 P09C            	S09out          	BF33            	51.7        	10          	0.1         	0           	Open  	;
 P08C            	S09out          	BF35N           	281.7       	34.2        	0.1         	0           	Open  	;
 P07C            	BF35N           	BF36N           	442.7       	26.8        	0.1         	0           	Open  	;
 P05C            	S09out          	PZ08A           	394.2       	34.2        	0.1         	0           	Open  	;
 P06C            	S09out          	BF34            	74.8        	34.2        	0.1         	0           	Open  	;
 P04C            	PZ08A           	BF39N           	27.7        	26.8        	0.1         	0           	Open  	;
 P03C            	S08             	N1              	364.8       	34.2        	0.1         	0           	Open  	;
 P02C            	N1              	BF37N           	171.4       	26.8        	0.1         	0           	Open  	;
 P01C            	N1              	BF38N           	526.8       	26.8        	0.1         	0           	Open  	;
 PSOR1           	SORGENTE        	SOR1            	1           	100         	0.1         	0           	Open  	;
 PSOR2           	SOR2            	P01             	1976        	99          	0.3         	0           	Open  	; 
 FS05            	PZ05B           	S05             	0.1         	28.8        	0.1         	0           	Open  	;
 P08K            	S00             	PZ13A           	180.8       	34.2        	0.1         	0           	Open  	;
 P03K            	BF19N           	PZ01A           	90.1        	26.8        	0.1         	0           	Open  	;
 P11M            	BF10N           	PZ03A           	315.5       	34.2        	0.1         	0           	Open  	;
 P05M            	BF05N           	PZ02A           	318.7       	25.2        	0.1         	0           	Open  	;
 FS06            	PZ06B           	S06             	0.1         	28.8        	0.1         	0           	Open  	;
 FS07            	PZ07B           	S07             	1           	45.2        	0.1         	0           	Open  	;
 FS09            	PZ09B           	S09             	0.1         	28.8        	0.1         	0           	Open  	;
 FS08            	PZ08B           	S08             	.1          	28.8        	0.1         	0           	Open  	;
 PS13            	PZ13B           	S13             	.1          	28.8        	0.1         	0           	Open  	;
 FS01            	PZ01B           	S01             	.1          	28.8        	0.1         	0           	Open  	;
 P16M            	T04             	PZ04A           	139.2       	34.2        	0.1         	0           	Open  	;
 FS03            	PZ03B           	S03             	.1          	28.8        	0.1         	0           	Open  	;
 FS02            	PZ02B           	S02             	0.1         	28.8        	0.1         	0           	Open  	;
 CM01            	P02             	T04             	1850        	103.6       	0.3         	0           	Open  	;
 CM02            	T04             	PZ11A           	650         	103         	0.3         	0           	Open  	;
 CM03            	PZ11A           	S00             	600         	103         	0.3         	0           	Open  	;
 P19M            	PZ11B           	S11             	15.4        	26.8        	0.1         	0           	Open  	;
 P18M            	S11out          	BF14            	40.7        	26.8        	0.1         	0           	Open  	;
 FS04            	PZ04B           	S04             	.1          	28.8        	0.1         	0           	Open  	;
 1               	S09             	S09out          	.1          	100         	0.1         	0           	Open  	;
 2               	S11             	S11out          	.1          	100         	0.1         	0           	Open  	;
 3               	S04             	S04out          	.1          	100         	0.1         	0           	Open  	;
 4               	S02             	S02out          	.1          	100         	0.1         	0           	Open  	;
 5               	S03             	S03out          	.1          	100         	0.1         	0           	Open  	;

[PUMPS]
;ID              	Node1           	Node2           	Parameters
 Pompa           	P01             	P02             	HEAD pumpKSB	;

[VALVES]
;ID              	Node1           	Node2           	Diameter    	Type	Setting     	MinorLoss   
 VSOR            	SOR1            	SOR2            	100         	FCV 	2.8         	0           	;
 VS01            	PZ01A           	PZ01B           	28.8        	GPV 	D7P.7x3     	0           	;
 VS13            	PZ13A           	PZ13B           	28.8        	FCV 	0.44        	0           	;
 VS02            	PZ02A           	PZ02B           	28.8        	GPV 	D7P.7x3     	0           	;
 VS03            	PZ03A           	PZ03B           	28.8        	GPV 	D7P.10x2    	0           	;
 VS04            	PZ04A           	PZ04B           	28.8        	GPV 	D7P.10x2    	0           	;
 VS09            	PZ09A           	PZ09B           	28.8        	GPV 	D7P.10x3    	0           	;
 VS08            	PZ08A           	PZ08B           	28.8        	GPV 	D7P.7x1     	0           	;
 VS07            	PZ07A           	PZ07B           	28.8        	GPV 	D7P.10x1    	0           	;
 VS05            	PZ05A           	PZ05B           	28.8        	FCV 	0.12        	0           	;
 VS06            	PZ06A           	PZ06B           	28.8        	GPV 	D7P.7x1     	0           	;
 VS11            	PZ11A           	PZ11B           	28.8        	GPV 	D7P.7x3     	0           	;
 VBF28           	BF28N           	BF28            	32          	GPV 	D7P.7x1     	0           	;
 VBF29           	BF29N           	BF29            	12          	GPV 	D7P.7x1     	0           	;
 VBF26           	BF26N           	BF26            	32          	GPV 	D7P.7x1     	0           	;
 VBF30           	BF30N           	BF30            	12          	GPV 	D7P.7x1     	0           	;
 VBF31           	BF31N           	BF31            	12          	GPV 	D7P.7x1     	0           	;
 VBF32           	BF32N           	BF32            	12          	GPV 	D7P.7x1     	0           	;
 VBF37           	BF37N           	BF37            	12          	GPV 	D7P.7x1     	0           	;
 VBF38           	BF38N           	BF38            	12          	GPV 	D7P.7x1     	0           	;
 VBF39           	BF39N           	BF39            	12          	GPV 	D7P.7x1     	0           	;
 VBF36           	BF36N           	BF36            	12          	GPV 	D7P.7x1     	0           	;
 VBF35           	BF35N           	BF35            	12          	GPV 	D7P.7x1     	0           	;
 VBF27           	BF27N           	BF27            	12          	GPV 	D7P.7x1     	0           	;
 VBF25           	BF25N           	BF25            	12          	GPV 	D7P.7x1     	0           	;
 VBF24           	BF24N           	BF24            	12          	GPV 	D7P.7x1     	0           	;
 VBF22           	BF22N           	BF22            	12          	GPV 	D7P.7x1     	0           	;
 VBF15           	BF15N           	BF15            	12          	GPV 	D7P.7x1     	0           	;
 VBF16           	BF16N           	BF16            	12          	GPV 	D7P.7x1     	0           	;
 VBF20           	BF20N           	BF20            	12          	GPV 	D7P.7x1     	0           	;
 VBF19           	BF19N           	BF19            	12          	GPV 	D7P.7x1     	0           	;
 VBF18           	BF18N           	BF18            	12          	GPV 	D7P.7x1     	0           	;
 VBF41           	BF41N           	BF41            	12          	GPV 	D7P.7x1     	0           	;
 VBF13           	BF13N           	BF13            	12          	GPV 	D7P.7x1     	0           	;
 VBF11           	BF11N           	BF11            	12          	GPV 	D7P.7x1     	0           	;
 VBF40           	BF40N           	BF40            	12          	GPV 	D7P.7x1     	0           	;
 VBF12           	BF12N           	BF12            	12          	GPV 	D7P.7x1     	0           	;
 VBF10           	BF10N           	BF10            	12          	GPV 	D7P.7x1     	0           	;
 VBF06           	BF06N           	BF06            	12          	GPV 	D7P.7x1     	0           	;
 VBF09           	BF09N           	BF09            	12          	GPV 	D7P.7x1     	0           	;
 VBF08           	BF08N           	BF08            	12          	GPV 	D7P.7x1     	0           	;
 VBF07           	BF07N           	BF07            	12          	GPV 	D7P.7x1     	0           	;
 VBF05           	BF05N           	BF05            	12          	GPV 	D7P.7x1     	0           	;
 VBF04           	BF04N           	BF04            	12          	GPV 	D7P.7x1     	0           	;
 VBF03           	BF03N           	BF03            	12          	GPV 	D7P.7x1     	0           	;
 VBF02           	BF02N           	BF02            	12          	GPV 	D7P.7x1     	0           	;
 VBF01           	BF01N           	BF01            	12          	GPV 	D7P.7x1     	0           	;

[TAGS]

[DEMANDS]
;Junction        	Demand      	Pattern         	Category

[STATUS]
;ID              	Status/Setting
 VBF28           	Open

[PATTERNS]
;ID              	Multipliers
;
 unoa            	0           	0           	0           	0           	0           	0           
 unoa            	0           	0           	0           	0           	1           	1           
 unoa            	1           	1           	0           	0           	0           	0           
 unoa            	0           	0           	0           	0           	0           	0           
 unoa            	1           	1           	1           	0           	0           	0           
 unoa            	1           	1           	1           	1           	1           	0           
 unoa            	0           	0           	0           	0           	0           	0           
 unoa            	0           	0           	0           	0           	0           	0           
;consumi aumentati
 unob            	0           	0           	0           	0           	0           	0           
 unob            	0           	0           	0           	0           	1.4         	1.4         
 unob            	1.4         	1.4         	0           	0           	0           	0           
 unob            	0           	0           	0           	0           	0           	0           
 unob            	1.4         	1.4         	1.4         	0           	0           	0           
 unob            	1.4         	1.4         	1.4         	1.4         	1.4         	0           
 unob            	0           	0           	0           	0           	0           	0           
 unob            	0           	0           	0           	0           	0           	0           

[CURVES]
;ID              	X-Value     	Y-Value
;PUMP: Pompa KSB
 pumpKSB         	0           	290         
 pumpKSB         	1.67        	280         
 pumpKSB         	3.89        	250         
 pumpKSB         	5.56        	200         
;HEADLOSS: 1 modulo da 3 piastre da 7mm
 D3P.7x1         	0.1         	0.570366972 
 D3P.7x1         	0.15        	1.575986239 
 D3P.7x1         	0.2         	3.061896024 
 D3P.7x1         	0.25        	5.02809633  
 D3P.7x1         	0.3         	7.474587156 
 D3P.7x1         	0.35        	10.4013685  
 D3P.7x1         	0.4         	13.80844037 
 D3P.7x1         	0.45        	17.69580275 
 D3P.7x1         	0.5         	22.06345566 
 D3P.7x1         	0.55        	26.91139908 
 D3P.7x1         	0.6         	32.23963303 
 D3P.7x1         	0.65        	38.04815749 
;HEADLOSS: 2 moduli da 3 piastre da 7mm
 D3P.7x2         	0.1         	1.140733945 
 D3P.7x2         	0.15        	3.151972477 
 D3P.7x2         	0.2         	6.123792049 
 D3P.7x2         	0.25        	10.05619266 
 D3P.7x2         	0.3         	14.94917431 
 D3P.7x2         	0.35        	20.802737   
 D3P.7x2         	0.4         	27.61688073 
 D3P.7x2         	0.45        	35.3916055  
 D3P.7x2         	0.5         	44.12691131 
 D3P.7x2         	0.55        	53.82279817 
 D3P.7x2         	0.6         	64.47926606 
 D3P.7x2         	0.65        	76.09631498 
;HEADLOSS: 1 modulo da 5 piastre da 7mm
 D5P.7x1         	.1          	1.55        
 D5P.7x1         	.15         	3.06        
 D5P.7x1         	.2          	5.04        
 D5P.7x1         	.25         	7.51        
 D5P.7x1         	.3          	10.46       
 D5P.7x1         	.35         	13.90       
 D5P.7x1         	.4          	17.82       
 D5P.7x1         	.45         	22.23       
 D5P.7x1         	.5          	27.11       
 D5P.7x1         	.55         	32.49       
 D5P.7x1         	.6          	38.34       
 D5P.7x1         	.65         	44.68       
;HEADLOSS: 2 moduli da 5 piastre da 7mm
 D5P.7x2         	0.1         	3.107441386 
 D5P.7x2         	0.15        	6.112079511 
 D5P.7x2         	0.2         	10.08399592 
 D5P.7x2         	0.25        	15.02319062 
 D5P.7x2         	0.3         	20.92966361 
 D5P.7x2         	0.35        	27.80341488 
 D5P.7x2         	0.4         	35.64444444 
 D5P.7x2         	0.45        	44.45275229 
 D5P.7x2         	0.5         	54.22833843 
 D5P.7x2         	0.55        	64.97120285 
 D5P.7x2         	0.6         	76.68134557 
 D5P.7x2         	0.65        	89.35876656 
;HEADLOSS: 1 modulo da 7 piastre da 7mm
 D7P.7x1         	0.1         	1.2         
 D7P.7x1         	0.15        	2.77        
 D7P.7x1         	0.2         	4.99        
 D7P.7x1         	0.25        	7.85        
 D7P.7x1         	0.30        	11.37       
 D7P.7x1         	0.35        	15.53       
 D7P.7x1         	0.40        	20.34       
 D7P.7x1         	0.45        	25.80       
 D7P.7x1         	0.50        	31.90       
 D7P.7x1         	0.55        	38.65       
 D7P.7x1         	0.60        	46.05       
 D7P.7x1         	0.65        	54.10       
;HEADLOSS: 2 moduli in serie con 7 piastre da 7mm
 D7P.7x2         	0.1         	2.4         
 D7P.7x2         	0.15        	5.54        
 D7P.7x2         	0.20        	9.98        
 D7P.7x2         	0.25        	15.71       
 D7P.7x2         	0.30        	22.74       
 D7P.7x2         	0.35        	31.06       
 D7P.7x2         	0.40        	40.68       
 D7P.7x2         	0.45        	51.59       
 D7P.7x2         	0.50        	63.89       
 D7P.7x2         	0.55        	77.31       
 D7P.7x2         	0.60        	92.11       
 D7P.7x2         	0.65        	108.20      
;HEADLOSS: 3 moduli in serie con 7 piastre da 7mm
 D7P.7x3         	0.10        	3.596024465 
 D7P.7x3         	0.15        	8.308715596 
 D7P.7x3         	0.20        	14.96452599 
 D7P.7x3         	0.25        	23.56345566 
 D7P.7x3         	0.30        	34.10550459 
 D7P.7x3         	0.35        	46.59067278 
 D7P.7x3         	0.40        	61.01896024 
 D7P.7x3         	0.45        	77.39036697 
 D7P.7x3         	0.50        	95.70489297 
 D7P.7x3         	0.55        	115.9625382 
 D7P.7x3         	0.60        	138.1633028 
 D7P.7x3         	0.65        	162.3071865 
;HEADLOSS: 4 moduli in serie con 7 piastre da 7mm
 D7P.7x4         	0.10        	4.794699286 
 D7P.7x4         	0.15        	11.07828746 
 D7P.7x4         	0.20        	19.95270133 
 D7P.7x4         	0.25        	31.41794088 
 D7P.7x4         	0.30        	45.47400612 
 D7P.7x4         	0.35        	62.12089704 
 D7P.7x4         	0.40        	81.35861366 
 D7P.7x4         	0.45        	103.187156  
 D7P.7x4         	0.50        	127.606524  
 D7P.7x4         	0.55        	154.6167176 
 D7P.7x4         	0.60        	184.217737  
 D7P.7x4         	0.65        	216.4095821 
;HEADLOSS: 1 modulo da 1 piastra da 7mm
 D1P.7x1         	0.10        	0.25        
 D1P.7x1         	0.15        	0.87        
 D1P.7x1         	0.20        	1.82        
 D1P.7x1         	0.25        	3.11        
 D1P.7x1         	0.30        	4.72        
 D1P.7x1         	0.35        	6.66        
 D1P.7x1         	0.40        	8.93        
 D1P.7x1         	0.45        	11.53       
 D1P.7x1         	0.50        	14.46       
 D1P.7x1         	0.55        	17.72       
 D1P.7x1         	0.60        	21.31       
 D1P.7x1         	0.65        	25.24       
;HEADLOSS: 3 moduli in serie con 7 piastre da 10mm
 D7P.10x3        	0.10        	3.56        
 D7P.10x3        	0.15        	6.57        
 D7P.10x3        	0.20        	10.40       
 D7P.10x3        	0.25        	15.06       
 D7P.10x3        	0.30        	20.54       
 D7P.10x3        	0.35        	26.85       
 D7P.10x3        	0.40        	33.97       
 D7P.10x3        	0.45        	41.92       
 D7P.10x3        	0.50        	50.70       
 D7P.10x3        	0.55        	60.29       
 D7P.10x3        	0.60        	70.71       
 D7P.10x3        	0.65        	81.95       
;HEADLOSS: 1 modulo da 7 piastre da 10mm
 D7P.10x1        	0.10        	1.19        
 D7P.10x1        	0.15        	2.19        
 D7P.10x1        	0.20        	3.47        
 D7P.10x1        	0.25        	5.02        
 D7P.10x1        	0.30        	6.85        